Version 4
SHEET 1 880 680
WIRE -1232 16 -1360 16
WIRE -1040 16 -1232 16
WIRE -848 16 -1040 16
WIRE -656 16 -848 16
WIRE -448 16 -656 16
WIRE -256 16 -448 16
WIRE -64 16 -256 16
WIRE 128 16 -64 16
WIRE -1232 64 -1232 16
WIRE -1040 64 -1040 16
WIRE -848 64 -848 16
WIRE -656 64 -656 16
WIRE -448 64 -448 16
WIRE -256 64 -256 16
WIRE -64 64 -64 16
WIRE 128 64 128 16
WIRE -1312 96 -1360 96
WIRE -1136 96 -1136 -16
WIRE -1136 96 -1168 96
WIRE -1120 96 -1136 96
WIRE -960 96 -960 -16
WIRE -960 96 -976 96
WIRE -928 96 -960 96
WIRE -752 96 -752 -16
WIRE -752 96 -784 96
WIRE -736 96 -752 96
WIRE -560 96 -560 -16
WIRE -560 96 -592 96
WIRE -528 96 -560 96
WIRE -352 96 -352 -16
WIRE -352 96 -384 96
WIRE -336 96 -352 96
WIRE -176 96 -176 -16
WIRE -176 96 -192 96
WIRE -144 96 -176 96
WIRE 16 96 16 -16
WIRE 16 96 0 96
WIRE 48 96 16 96
WIRE 320 96 192 96
WIRE 384 96 320 96
WIRE -1312 160 -1328 160
WIRE -1120 160 -1168 160
WIRE -928 160 -976 160
WIRE -736 160 -784 160
WIRE -528 160 -592 160
WIRE -336 160 -384 160
WIRE -144 160 -192 160
WIRE 48 160 0 160
WIRE 288 160 192 160
WIRE -1328 208 -1328 160
WIRE 320 208 320 96
WIRE 320 208 -1328 208
WIRE -1360 240 -1360 96
WIRE 288 240 288 160
WIRE 288 240 -1360 240
FLAG 384 96 H
IOPIN 384 96 Out
FLAG -1360 16 vcc
IOPIN -1360 16 In
FLAG -1136 -16 A
IOPIN -1136 -16 Out
FLAG -960 -16 B
IOPIN -960 -16 Out
FLAG -752 -16 C
IOPIN -752 -16 Out
FLAG -560 -16 D
IOPIN -560 -16 Out
FLAG -352 -16 E
IOPIN -352 -16 Out
FLAG -176 -16 F
IOPIN -176 -16 Out
FLAG 16 -16 G
IOPIN 16 -16 Out
SYMBOL UNIT -1248 128 R0
SYMATTR InstName X1
SYMBOL UNIT -1056 128 R0
SYMATTR InstName X2
SYMBOL UNIT -864 128 R0
SYMATTR InstName X3
SYMBOL UNIT -672 128 R0
SYMATTR InstName X4
SYMBOL UNIT -464 128 R0
SYMATTR InstName X5
SYMBOL UNIT -272 128 R0
SYMATTR InstName X6
SYMBOL UNIT -80 128 R0
SYMATTR InstName X7
SYMBOL UNIT 112 128 R0
SYMATTR InstName X8
