Version 4
SHEET 1 880 680
WIRE 384 -96 -96 -96
WIRE 512 -96 384 -96
WIRE 560 -96 512 -96
WIRE 384 -32 384 -96
WIRE 320 -16 48 -16
WIRE 320 16 48 16
WIRE 320 48 48 48
WIRE 320 80 48 80
WIRE 576 80 448 80
WIRE -96 96 -96 -96
WIRE -48 96 -96 96
WIRE 320 112 48 112
WIRE 320 144 48 144
WIRE 320 176 48 176
WIRE 240 208 48 208
WIRE 320 208 240 208
WIRE 240 256 240 208
WIRE 240 256 -624 256
WIRE 320 256 256 256
WIRE 320 288 64 288
WIRE 256 320 256 256
WIRE 256 320 -176 320
WIRE 320 320 288 320
WIRE -288 352 -512 352
WIRE -96 352 -96 96
WIRE -96 352 -288 352
WIRE -48 352 -96 352
WIRE 176 352 -48 352
WIRE 384 352 384 336
WIRE 512 352 512 -16
WIRE 512 352 384 352
WIRE -416 384 -608 384
WIRE -192 384 -384 384
WIRE 48 384 -144 384
WIRE 272 384 80 384
WIRE 560 384 560 -96
WIRE 560 384 480 384
WIRE -512 400 -512 352
WIRE -288 400 -288 352
WIRE -48 400 -48 352
WIRE 176 400 176 352
WIRE 480 416 480 384
WIRE 512 416 480 416
WIRE 560 416 560 384
WIRE -608 448 -608 384
WIRE -592 448 -608 448
WIRE -400 448 -432 448
WIRE -384 448 -384 384
WIRE -368 448 -384 448
WIRE -176 448 -176 320
WIRE -176 448 -208 448
WIRE -144 448 -144 384
WIRE -128 448 -144 448
WIRE 64 448 64 288
WIRE 64 448 32 448
WIRE 80 448 80 384
WIRE 96 448 80 448
WIRE 288 448 288 320
WIRE 288 448 256 448
WIRE 512 448 288 448
WIRE -176 496 -176 448
WIRE 688 464 624 464
WIRE 480 480 480 416
WIRE 512 480 480 480
WIRE -624 496 -624 256
WIRE -592 496 -624 496
WIRE -416 496 -416 384
WIRE -416 496 -432 496
WIRE -400 496 -400 448
WIRE -368 496 -400 496
WIRE -192 496 -192 384
WIRE -192 496 -208 496
WIRE -128 496 -176 496
WIRE 48 496 48 384
WIRE 48 496 32 496
WIRE 64 496 64 448
WIRE 96 496 64 496
WIRE 272 496 272 384
WIRE 272 496 256 496
WIRE 480 512 480 480
WIRE 512 512 480 512
WIRE -512 576 -512 544
WIRE -288 576 -288 544
WIRE -288 576 -512 576
WIRE -48 576 -48 544
WIRE -48 576 -288 576
WIRE 176 576 176 544
WIRE 176 576 -48 576
WIRE 384 576 384 352
WIRE 384 576 176 576
WIRE 560 576 560 512
WIRE 560 576 384 576
WIRE 0 0 0 0
FLAG 512 352 GND
FLAG 576 80 out
FLAG 688 464 nout
SYMBOL 8-1selector 384 176 R0
SYMATTR InstName X1
SYMBOL voltage 512 -112 R0
WINDOW 123 0 0 Left 2
WINDOW 39 0 0 Left 2
SYMATTR InstName V1
SYMATTR Value PULSE 0 5
SYMBOL 8pring 0 96 R0
SYMATTR InstName X2
SYMBOL mydff -48 496 R0
SYMATTR InstName X3
SYMBOL mydff 176 496 R0
SYMATTR InstName X4
SYMBOL mynand4 560 496 R0
SYMATTR InstName X5
SYMBOL mydff -512 496 R0
SYMATTR InstName X6
SYMBOL mydff -288 496 R0
SYMATTR InstName X7
TEXT -160 584 Left 2 !.tran 1u
TEXT -160 624 Left 2 !.include 'models/mos_tt.lib'
