Version 4
SHEET 1 880 680
WIRE -368 16 -496 16
WIRE 16 16 -368 16
WIRE -368 64 -368 16
WIRE 16 64 16 16
WIRE -448 96 -496 96
WIRE -64 96 -304 96
WIRE 128 96 80 96
WIRE 192 96 128 96
WIRE -448 160 -464 160
WIRE -64 160 -304 160
WIRE 96 160 80 160
WIRE -464 208 -464 160
WIRE 128 208 128 96
WIRE 128 208 -464 208
WIRE -496 240 -496 96
WIRE 96 240 96 160
WIRE 96 240 -496 240
FLAG 192 96 out
IOPIN 192 96 Out
FLAG -496 16 vcc
IOPIN -496 16 In
SYMBOL UNIT -384 128 R0
SYMATTR InstName X1
SYMBOL UNIT 0 128 R0
SYMATTR InstName X4
